* 
* Copyright 2012 by Artisan Components, Inc.
* This file has been provided pursuant to a License Agreement
* containing restrictions on its use.  This file contains valuable
* trade secrets and proprietary information of Artisan Components,
* Inc. and is protected by law.
* 
* Generated by bif2cdl v3.3g
* Version: 2005Q2V1
* Name: High Speed/Density Diffusion ROM Generator (ROM-DIFF)|SMIC Logic013 Process
* Comment: 
* Configuration:  -instname "Bimod_Tag_ROM" -words 128 -bits 16 -fr\
* Configuration: equency 5 -ring_width 5.0 -code_file "Bimod.rom" -\
* Configuration: mux 16 -top_layer "met5-8" -power_type rings -hori\
* Configuration: z met3 -vert met4 -cust_comment "" -bus_notation o\
* Configuration: n -left_bus_delim "[" -right_bus_delim "]" -pwr_gn\
* Configuration: d_rename "VDD:VDD,GND:VSS" -prefix "" -pin_space 0\
* Configuration: .0 -name_case upper -check_instname on -diodes on \
* Configuration: -inside_ring_type GND -drive 6 -corners ff_1.32_-4\
* Configuration: 0.0,tt_1.2_25.0,ss_1.08_125.0,ff_1.32_0.0
* Codefile: Bimod.rom
* 
*
** begin lvs.header
** $Revision: 1.1 $
** end lvs.header
*.BIPOLAR
*.DIOAREA
*.DIOPERI
*
****
.SUBCKT Bimod_Tag_ROMHXP38 A0 A1 A2 AGTPB AGTPT XP_0 XP_1 XP_2 XP_3 XP_4 XP_5
+  XP_6 XP_7 VDD VSS
** Bimod_Tag_ROMHXP38: 189 flat devices **
d175 VSS A2 NDIO12 0.2116P 1.84U
d182 VSS A1 NDIO12 0.2116P 1.84U
d189 VSS A0 NDIO12 0.2116P 1.84U
m1 AP67-APN1 N31 AP67-AIND1 VSS N12 L=0.13U W=4.82U
m10 N26 AI2_ VSS VSS N12 L=0.13U W=2.02U
m100 AP23-AIND1 N109 VDD VDD P12 L=0.13U W=6.61U
m101 N141 N109 N142 VSS N12 L=0.13U W=4.82U
m102 AP23-AIND1 AP23-AIN21 VDD VDD P12 L=0.13U W=6.61U
m103 AP23-AIND1 AP23-AIN21 N141 VSS N12 L=0.13U W=4.82U
m104 AP23-APN0 N126 AP23-AIND0 VSS N12 L=0.13U W=4.82U
m105 AP23-APN0 AGTPB AP23-AIND0 VDD P12 L=0.13U W=6.62U
m106 N126 AGTPB VDD VDD P12 L=0.13U W=0.94U
m107 N126 AGTPB VSS VSS N12 L=0.13U W=0.73U
m108 AP23-AIN20 AI0 VDD VDD P12 L=0.13U W=3.36U
m109 AP23-AIN20 AI0 VSS VSS N12 L=0.13U W=2.02U
m11 N60 N26 VSS VSS N12 L=0.13U W=4.82U
m110 N148 N110 VSS VSS N12 L=0.13U W=4.82U
m111 N147 N109 N148 VSS N12 L=0.13U W=4.82U
m112 AP23-AIND0 AP23-AIN20 N147 VSS N12 L=0.13U W=4.82U
m113 AP23-AIND0 N110 VDD VDD P12 L=0.13U W=6.61U
m114 N146 N110 VSS VSS N12 L=0.13U W=4.82U
m115 AP23-AIND0 N109 VDD VDD P12 L=0.13U W=6.61U
m116 N145 N109 N146 VSS N12 L=0.13U W=4.82U
m117 AP23-AIND0 AP23-AIN20 VDD VDD P12 L=0.13U W=6.61U
m118 AP23-AIND0 AP23-AIN20 N145 VSS N12 L=0.13U W=4.82U
m119 AP23-APN1 XP_3 VDD VDD P12 L=0.2U W=0.15U
m12 N59 N25 N60 VSS N12 L=0.13U W=4.82U
m120 AP23-APN1 XP_3 VSS VSS N12 L=0.39U W=0.15U
m121 XP_3 AP23-APN1 VDD VDD P12 L=0.13U W=23.32U
m122 XP_3 AP23-APN1 VSS VSS N12 L=0.13U W=10.4U
m123 AP23-APN0 XP_2 VDD VDD P12 L=0.2U W=0.15U
m124 AP23-APN0 XP_2 VSS VSS N12 L=0.39U W=0.15U
m125 XP_2 AP23-APN0 VDD VDD P12 L=0.13U W=23.32U
m126 XP_2 AP23-APN0 VSS VSS N12 L=0.13U W=10.4U
m127 AP01-APN1 N157 AP01-AIND1 VSS N12 L=0.13U W=4.82U
m128 AP01-APN1 AGTPT AP01-AIND1 VDD P12 L=0.13U W=6.62U
m129 N157 AGTPT VDD VDD P12 L=0.13U W=0.94U
m13 AP67-AIND1 AP67-AIN21 N59 VSS N12 L=0.13U W=4.82U
m130 N157 AGTPT VSS VSS N12 L=0.13U W=0.73U
m131 AP01-AIN21 AI0_ VDD VDD P12 L=0.13U W=3.36U
m132 AP01-AIN21 AI0_ VSS VSS N12 L=0.13U W=2.02U
m133 N151 AI1 VDD VDD P12 L=0.13U W=3.36U
m134 N151 AI1 VSS VSS N12 L=0.13U W=2.02U
m135 N152 AI2 VDD VDD P12 L=0.13U W=3.36U
m136 N152 AI2 VSS VSS N12 L=0.13U W=2.02U
m137 N186 N152 VSS VSS N12 L=0.13U W=4.82U
m138 N185 N151 N186 VSS N12 L=0.13U W=4.82U
m139 AP01-AIND1 AP01-AIN21 N185 VSS N12 L=0.13U W=4.82U
m14 AP67-AIND1 N26 VDD VDD P12 L=0.13U W=6.61U
m140 AP01-AIND1 N152 VDD VDD P12 L=0.13U W=6.61U
m141 N184 N152 VSS VSS N12 L=0.13U W=4.82U
m142 AP01-AIND1 N151 VDD VDD P12 L=0.13U W=6.61U
m143 N183 N151 N184 VSS N12 L=0.13U W=4.82U
m144 AP01-AIND1 AP01-AIN21 VDD VDD P12 L=0.13U W=6.61U
m145 AP01-AIND1 AP01-AIN21 N183 VSS N12 L=0.13U W=4.82U
m146 AP01-APN0 N168 AP01-AIND0 VSS N12 L=0.13U W=4.82U
m147 AP01-APN0 AGTPB AP01-AIND0 VDD P12 L=0.13U W=6.62U
m148 N168 AGTPB VDD VDD P12 L=0.13U W=0.94U
m149 N168 AGTPB VSS VSS N12 L=0.13U W=0.73U
m15 N58 N26 VSS VSS N12 L=0.13U W=4.82U
m150 AP01-AIN20 AI0 VDD VDD P12 L=0.13U W=3.36U
m151 AP01-AIN20 AI0 VSS VSS N12 L=0.13U W=2.02U
m152 N190 N152 VSS VSS N12 L=0.13U W=4.82U
m153 N189 N151 N190 VSS N12 L=0.13U W=4.82U
m154 AP01-AIND0 AP01-AIN20 N189 VSS N12 L=0.13U W=4.82U
m155 AP01-AIND0 N152 VDD VDD P12 L=0.13U W=6.61U
m156 N188 N152 VSS VSS N12 L=0.13U W=4.82U
m157 AP01-AIND0 N151 VDD VDD P12 L=0.13U W=6.61U
m158 N187 N151 N188 VSS N12 L=0.13U W=4.82U
m159 AP01-AIND0 AP01-AIN20 VDD VDD P12 L=0.13U W=6.61U
m16 AP67-AIND1 N25 VDD VDD P12 L=0.13U W=6.61U
m160 AP01-AIND0 AP01-AIN20 N187 VSS N12 L=0.13U W=4.82U
m161 AP01-APN1 XP_1 VDD VDD P12 L=0.2U W=0.15U
m162 AP01-APN1 XP_1 VSS VSS N12 L=0.39U W=0.15U
m163 XP_1 AP01-APN1 VDD VDD P12 L=0.13U W=23.32U
m164 XP_1 AP01-APN1 VSS VSS N12 L=0.13U W=10.4U
m165 AP01-APN0 XP_0 VDD VDD P12 L=0.2U W=0.15U
m166 AP01-APN0 XP_0 VSS VSS N12 L=0.39U W=0.15U
m167 XP_0 AP01-APN0 VDD VDD P12 L=0.13U W=23.32U
m168 XP_0 AP01-APN0 VSS VSS N12 L=0.13U W=10.4U
m169 AI2 N191 VDD VDD P12 L=0.13U W=4U
m17 N57 N25 N58 VSS N12 L=0.13U W=4.82U
m170 AI2 N191 VSS VSS N12 L=0.13U W=2.46U
m171 AI2_ A2 VDD VDD P12 L=0.13U W=4U
m172 AI2_ A2 VSS VSS N12 L=0.13U W=2.46U
m173 N191 A2 VDD VDD P12 L=0.13U W=3.2U
m174 N191 A2 VSS VSS N12 L=0.13U W=1.98U
m176 AI1 N199 VDD VDD P12 L=0.13U W=4U
m177 AI1 N199 VSS VSS N12 L=0.13U W=2.46U
m178 AI1_ A1 VDD VDD P12 L=0.13U W=4U
m179 AI1_ A1 VSS VSS N12 L=0.13U W=2.46U
m18 AP67-AIND1 AP67-AIN21 VDD VDD P12 L=0.13U W=6.61U
m180 N199 A1 VDD VDD P12 L=0.13U W=3.2U
m181 N199 A1 VSS VSS N12 L=0.13U W=1.98U
m183 AI0 N207 VDD VDD P12 L=0.13U W=4U
m184 AI0 N207 VSS VSS N12 L=0.13U W=2.46U
m185 AI0_ A0 VDD VDD P12 L=0.13U W=4U
m186 AI0_ A0 VSS VSS N12 L=0.13U W=2.46U
m187 N207 A0 VDD VDD P12 L=0.13U W=3.2U
m188 N207 A0 VSS VSS N12 L=0.13U W=1.98U
m19 AP67-AIND1 AP67-AIN21 N57 VSS N12 L=0.13U W=4.82U
m2 AP67-APN1 AGTPT AP67-AIND1 VDD P12 L=0.13U W=6.62U
m20 AP67-APN0 N42 AP67-AIND0 VSS N12 L=0.13U W=4.82U
m21 AP67-APN0 AGTPB AP67-AIND0 VDD P12 L=0.13U W=6.62U
m22 N42 AGTPB VDD VDD P12 L=0.13U W=0.94U
m23 N42 AGTPB VSS VSS N12 L=0.13U W=0.73U
m24 AP67-AIN20 AI0 VDD VDD P12 L=0.13U W=3.36U
m25 AP67-AIN20 AI0 VSS VSS N12 L=0.13U W=2.02U
m26 N64 N26 VSS VSS N12 L=0.13U W=4.82U
m27 N63 N25 N64 VSS N12 L=0.13U W=4.82U
m28 AP67-AIND0 AP67-AIN20 N63 VSS N12 L=0.13U W=4.82U
m29 AP67-AIND0 N26 VDD VDD P12 L=0.13U W=6.61U
m3 N31 AGTPT VDD VDD P12 L=0.13U W=0.94U
m30 N62 N26 VSS VSS N12 L=0.13U W=4.82U
m31 AP67-AIND0 N25 VDD VDD P12 L=0.13U W=6.61U
m32 N61 N25 N62 VSS N12 L=0.13U W=4.82U
m33 AP67-AIND0 AP67-AIN20 VDD VDD P12 L=0.13U W=6.61U
m34 AP67-AIND0 AP67-AIN20 N61 VSS N12 L=0.13U W=4.82U
m35 AP67-APN1 XP_7 VDD VDD P12 L=0.2U W=0.15U
m36 AP67-APN1 XP_7 VSS VSS N12 L=0.39U W=0.15U
m37 XP_7 AP67-APN1 VDD VDD P12 L=0.13U W=23.32U
m38 XP_7 AP67-APN1 VSS VSS N12 L=0.13U W=10.4U
m39 AP67-APN0 XP_6 VDD VDD P12 L=0.2U W=0.15U
m4 N31 AGTPT VSS VSS N12 L=0.13U W=0.73U
m40 AP67-APN0 XP_6 VSS VSS N12 L=0.39U W=0.15U
m41 XP_6 AP67-APN0 VDD VDD P12 L=0.13U W=23.32U
m42 XP_6 AP67-APN0 VSS VSS N12 L=0.13U W=10.4U
m43 AP45-APN1 N73 AP45-AIND1 VSS N12 L=0.13U W=4.82U
m44 AP45-APN1 AGTPT AP45-AIND1 VDD P12 L=0.13U W=6.62U
m45 N73 AGTPT VDD VDD P12 L=0.13U W=0.94U
m46 N73 AGTPT VSS VSS N12 L=0.13U W=0.73U
m47 AP45-AIN21 AI0_ VDD VDD P12 L=0.13U W=3.36U
m48 AP45-AIN21 AI0_ VSS VSS N12 L=0.13U W=2.02U
m49 N67 AI1 VDD VDD P12 L=0.13U W=3.36U
m5 AP67-AIN21 AI0_ VDD VDD P12 L=0.13U W=3.36U
m50 N67 AI1 VSS VSS N12 L=0.13U W=2.02U
m51 N68 AI2_ VDD VDD P12 L=0.13U W=3.36U
m52 N68 AI2_ VSS VSS N12 L=0.13U W=2.02U
m53 N102 N68 VSS VSS N12 L=0.13U W=4.82U
m54 N101 N67 N102 VSS N12 L=0.13U W=4.82U
m55 AP45-AIND1 AP45-AIN21 N101 VSS N12 L=0.13U W=4.82U
m56 AP45-AIND1 N68 VDD VDD P12 L=0.13U W=6.61U
m57 N100 N68 VSS VSS N12 L=0.13U W=4.82U
m58 AP45-AIND1 N67 VDD VDD P12 L=0.13U W=6.61U
m59 N99 N67 N100 VSS N12 L=0.13U W=4.82U
m6 AP67-AIN21 AI0_ VSS VSS N12 L=0.13U W=2.02U
m60 AP45-AIND1 AP45-AIN21 VDD VDD P12 L=0.13U W=6.61U
m61 AP45-AIND1 AP45-AIN21 N99 VSS N12 L=0.13U W=4.82U
m62 AP45-APN0 N84 AP45-AIND0 VSS N12 L=0.13U W=4.82U
m63 AP45-APN0 AGTPB AP45-AIND0 VDD P12 L=0.13U W=6.62U
m64 N84 AGTPB VDD VDD P12 L=0.13U W=0.94U
m65 N84 AGTPB VSS VSS N12 L=0.13U W=0.73U
m66 AP45-AIN20 AI0 VDD VDD P12 L=0.13U W=3.36U
m67 AP45-AIN20 AI0 VSS VSS N12 L=0.13U W=2.02U
m68 N106 N68 VSS VSS N12 L=0.13U W=4.82U
m69 N105 N67 N106 VSS N12 L=0.13U W=4.82U
m7 N25 AI1_ VDD VDD P12 L=0.13U W=3.36U
m70 AP45-AIND0 AP45-AIN20 N105 VSS N12 L=0.13U W=4.82U
m71 AP45-AIND0 N68 VDD VDD P12 L=0.13U W=6.61U
m72 N104 N68 VSS VSS N12 L=0.13U W=4.82U
m73 AP45-AIND0 N67 VDD VDD P12 L=0.13U W=6.61U
m74 N103 N67 N104 VSS N12 L=0.13U W=4.82U
m75 AP45-AIND0 AP45-AIN20 VDD VDD P12 L=0.13U W=6.61U
m76 AP45-AIND0 AP45-AIN20 N103 VSS N12 L=0.13U W=4.82U
m77 AP45-APN1 XP_5 VDD VDD P12 L=0.2U W=0.15U
m78 AP45-APN1 XP_5 VSS VSS N12 L=0.39U W=0.15U
m79 XP_5 AP45-APN1 VDD VDD P12 L=0.13U W=23.32U
m8 N25 AI1_ VSS VSS N12 L=0.13U W=2.02U
m80 XP_5 AP45-APN1 VSS VSS N12 L=0.13U W=10.4U
m81 AP45-APN0 XP_4 VDD VDD P12 L=0.2U W=0.15U
m82 AP45-APN0 XP_4 VSS VSS N12 L=0.39U W=0.15U
m83 XP_4 AP45-APN0 VDD VDD P12 L=0.13U W=23.32U
m84 XP_4 AP45-APN0 VSS VSS N12 L=0.13U W=10.4U
m85 AP23-APN1 N115 AP23-AIND1 VSS N12 L=0.13U W=4.82U
m86 AP23-APN1 AGTPT AP23-AIND1 VDD P12 L=0.13U W=6.62U
m87 N115 AGTPT VDD VDD P12 L=0.13U W=0.94U
m88 N115 AGTPT VSS VSS N12 L=0.13U W=0.73U
m89 AP23-AIN21 AI0_ VDD VDD P12 L=0.13U W=3.36U
m9 N26 AI2_ VDD VDD P12 L=0.13U W=3.36U
m90 AP23-AIN21 AI0_ VSS VSS N12 L=0.13U W=2.02U
m91 N109 AI1_ VDD VDD P12 L=0.13U W=3.36U
m92 N109 AI1_ VSS VSS N12 L=0.13U W=2.02U
m93 N110 AI2 VDD VDD P12 L=0.13U W=3.36U
m94 N110 AI2 VSS VSS N12 L=0.13U W=2.02U
m95 N144 N110 VSS VSS N12 L=0.13U W=4.82U
m96 N143 N109 N144 VSS N12 L=0.13U W=4.82U
m97 AP23-AIND1 AP23-AIN21 N143 VSS N12 L=0.13U W=4.82U
m98 AP23-AIND1 N110 VDD VDD P12 L=0.13U W=6.61U
m99 N142 N110 VSS VSS N12 L=0.13U W=4.82U
.ENDS Bimod_Tag_ROMHXP38
****
.SUBCKT Bimod_Tag_ROMHXP38X A0 A1 A2 AGTPB AGTPT XP_0 XP_1 XP_2 XP_3 XP_4 XP_5
+  XP_6 XP_7 VDD VSS
** Bimod_Tag_ROMHXP38X: 189 flat devices **
XI0 A0 A1 A2 AGTPB AGTPT XP_0 XP_1 XP_2 XP_3 XP_4 XP_5 XP_6 XP_7 VDD VSS
+  Bimod_Tag_ROMHXP38
.ENDS Bimod_Tag_ROMHXP38X
****
.SUBCKT Bimod_Tag_ROMXDECS A0 A1 A2 AGTPB AGTPT XP_0 XP_1 XP_2 XP_3 XP_4 XP_5
+  XP_6 XP_7 VDD VSS
** Bimod_Tag_ROMXDECS: 189 flat devices **
XI2 A0 A1 A2 AGTPB AGTPT XP_0 XP_1 XP_2 XP_3 XP_4 XP_5 XP_6 XP_7 VDD VSS
+  Bimod_Tag_ROMHXP38X
.ENDS Bimod_Tag_ROMXDECS
****
.SUBCKT Bimod_Tag_ROMHYP12 A0 AGTPB AGTPT YP24_0 YP24_1 VDD VSS
** Bimod_Tag_ROMHYP12: 49 flat devices **
d49 VSS A0 NDIO12 0.2116P 1.84U
m1 AP-APN1 N20 AP-AIND1 VSS N12 L=0.13U W=4.82U
m10 N15 VSS VSS VSS N12 L=0.13U W=2.02U
m11 N49 N15 VSS VSS N12 L=0.13U W=4.82U
m12 N48 N14 N49 VSS N12 L=0.13U W=4.82U
m13 AP-AIND1 AP-AIN21 N48 VSS N12 L=0.13U W=4.82U
m14 AP-AIND1 N15 VDD VDD P12 L=0.13U W=6.61U
m15 N47 N15 VSS VSS N12 L=0.13U W=4.82U
m16 AP-AIND1 N14 VDD VDD P12 L=0.13U W=6.61U
m17 N46 N14 N47 VSS N12 L=0.13U W=4.82U
m18 AP-AIND1 AP-AIN21 VDD VDD P12 L=0.13U W=6.61U
m19 AP-AIND1 AP-AIN21 N46 VSS N12 L=0.13U W=4.82U
m2 AP-APN1 AGTPT AP-AIND1 VDD P12 L=0.13U W=6.62U
m20 AP-APN0 N31 AP-AIND0 VSS N12 L=0.13U W=4.82U
m21 AP-APN0 AGTPB AP-AIND0 VDD P12 L=0.13U W=6.62U
m22 N31 AGTPB VDD VDD P12 L=0.13U W=0.94U
m23 N31 AGTPB VSS VSS N12 L=0.13U W=0.73U
m24 AP-AIN20 N10 VDD VDD P12 L=0.13U W=3.36U
m25 AP-AIN20 N10 VSS VSS N12 L=0.13U W=2.02U
m26 N53 N15 VSS VSS N12 L=0.13U W=4.82U
m27 N52 N14 N53 VSS N12 L=0.13U W=4.82U
m28 AP-AIND0 AP-AIN20 N52 VSS N12 L=0.13U W=4.82U
m29 AP-AIND0 N15 VDD VDD P12 L=0.13U W=6.61U
m3 N20 AGTPT VDD VDD P12 L=0.13U W=0.94U
m30 N51 N15 VSS VSS N12 L=0.13U W=4.82U
m31 AP-AIND0 N14 VDD VDD P12 L=0.13U W=6.61U
m32 N50 N14 N51 VSS N12 L=0.13U W=4.82U
m33 AP-AIND0 AP-AIN20 VDD VDD P12 L=0.13U W=6.61U
m34 AP-AIND0 AP-AIN20 N50 VSS N12 L=0.13U W=4.82U
m35 AP-APN1 YP24_0 VDD VDD P12 L=0.2U W=0.15U
m36 AP-APN1 YP24_0 VSS VSS N12 L=0.39U W=0.15U
m37 YP24_0 AP-APN1 VDD VDD P12 L=0.13U W=23.32U
m38 YP24_0 AP-APN1 VSS VSS N12 L=0.13U W=10.4U
m39 AP-APN0 YP24_1 VDD VDD P12 L=0.2U W=0.15U
m4 N20 AGTPT VSS VSS N12 L=0.13U W=0.73U
m40 AP-APN0 YP24_1 VSS VSS N12 L=0.39U W=0.15U
m41 YP24_1 AP-APN0 VDD VDD P12 L=0.13U W=23.32U
m42 YP24_1 AP-APN0 VSS VSS N12 L=0.13U W=10.4U
m43 N9 N54 VDD VDD P12 L=0.13U W=4U
m44 N9 N54 VSS VSS N12 L=0.13U W=2.46U
m45 N10 A0 VDD VDD P12 L=0.13U W=4U
m46 N10 A0 VSS VSS N12 L=0.13U W=2.46U
m47 N54 A0 VDD VDD P12 L=0.13U W=3.2U
m48 N54 A0 VSS VSS N12 L=0.13U W=1.98U
m5 AP-AIN21 N9 VDD VDD P12 L=0.13U W=3.36U
m6 AP-AIN21 N9 VSS VSS N12 L=0.13U W=2.02U
m7 N14 VSS VDD VDD P12 L=0.13U W=3.36U
m8 N14 VSS VSS VSS N12 L=0.13U W=2.02U
m9 N15 VSS VDD VDD P12 L=0.13U W=3.36U
.ENDS Bimod_Tag_ROMHYP12
****
.SUBCKT Bimod_Tag_ROMHYP12X A0 AGTPB AGTPT YP24_0 YP24_1 VDD VSS
** Bimod_Tag_ROMHYP12X: 49 flat devices **
XI0 A0 AGTPB AGTPT YP24_0 YP24_1 VDD VSS Bimod_Tag_ROMHYP12
.ENDS Bimod_Tag_ROMHYP12X
****
.SUBCKT Bimod_Tag_ROMHYP38 A0 A1 A2 AGTPB AGTPT YP24_0 YP24_1 YP24_2 YP24_3
+  YP38_0 YP38_1 YP38_2 YP38_3 YP38_4 YP38_5 YP38_6 YP38_7 VDD VSS
** Bimod_Tag_ROMHYP38: 189 flat devices **
d175 VSS A2 NDIO12 0.2116P 1.84U
d182 VSS A1 NDIO12 0.2116P 1.84U
d189 VSS A0 NDIO12 0.2116P 1.84U
m1 AP67-APN1 N35 AP67-AIND1 VSS N12 L=0.13U W=4.82U
m10 N30 AI2_ VSS VSS N12 L=0.13U W=2.02U
m100 AP23-AIND1 N113 VDD VDD P12 L=0.13U W=6.61U
m101 N145 N113 N146 VSS N12 L=0.13U W=4.82U
m102 AP23-AIND1 AP23-AIN21 VDD VDD P12 L=0.13U W=6.61U
m103 AP23-AIND1 AP23-AIN21 N145 VSS N12 L=0.13U W=4.82U
m104 AP23-APN0 N130 AP23-AIND0 VSS N12 L=0.13U W=4.82U
m105 AP23-APN0 AGTPB AP23-AIND0 VDD P12 L=0.13U W=6.62U
m106 N130 AGTPB VDD VDD P12 L=0.13U W=0.94U
m107 N130 AGTPB VSS VSS N12 L=0.13U W=0.73U
m108 AP23-AIN20 AI0_ VDD VDD P12 L=0.13U W=3.36U
m109 AP23-AIN20 AI0_ VSS VSS N12 L=0.13U W=2.02U
m11 N64 N30 VSS VSS N12 L=0.13U W=4.82U
m110 N152 N114 VSS VSS N12 L=0.13U W=4.82U
m111 N151 N113 N152 VSS N12 L=0.13U W=4.82U
m112 AP23-AIND0 AP23-AIN20 N151 VSS N12 L=0.13U W=4.82U
m113 AP23-AIND0 N114 VDD VDD P12 L=0.13U W=6.61U
m114 N150 N114 VSS VSS N12 L=0.13U W=4.82U
m115 AP23-AIND0 N113 VDD VDD P12 L=0.13U W=6.61U
m116 N149 N113 N150 VSS N12 L=0.13U W=4.82U
m117 AP23-AIND0 AP23-AIN20 VDD VDD P12 L=0.13U W=6.61U
m118 AP23-AIND0 AP23-AIN20 N149 VSS N12 L=0.13U W=4.82U
m119 AP23-APN1 YP38_2 VDD VDD P12 L=0.2U W=0.15U
m12 N63 N29 N64 VSS N12 L=0.13U W=4.82U
m120 AP23-APN1 YP38_2 VSS VSS N12 L=0.39U W=0.15U
m121 YP38_2 AP23-APN1 VDD VDD P12 L=0.13U W=23.32U
m122 YP38_2 AP23-APN1 VSS VSS N12 L=0.13U W=10.4U
m123 AP23-APN0 YP38_3 VDD VDD P12 L=0.2U W=0.15U
m124 AP23-APN0 YP38_3 VSS VSS N12 L=0.39U W=0.15U
m125 YP38_3 AP23-APN0 VDD VDD P12 L=0.13U W=23.32U
m126 YP38_3 AP23-APN0 VSS VSS N12 L=0.13U W=10.4U
m127 AP01-APN1 N161 AP01-AIND1 VSS N12 L=0.13U W=4.82U
m128 AP01-APN1 AGTPT AP01-AIND1 VDD P12 L=0.13U W=6.62U
m129 N161 AGTPT VDD VDD P12 L=0.13U W=0.94U
m13 AP67-AIND1 AP67-AIN21 N63 VSS N12 L=0.13U W=4.82U
m130 N161 AGTPT VSS VSS N12 L=0.13U W=0.73U
m131 AP01-AIN21 AI0 VDD VDD P12 L=0.13U W=3.36U
m132 AP01-AIN21 AI0 VSS VSS N12 L=0.13U W=2.02U
m133 N155 AI1 VDD VDD P12 L=0.13U W=3.36U
m134 N155 AI1 VSS VSS N12 L=0.13U W=2.02U
m135 N156 AI2 VDD VDD P12 L=0.13U W=3.36U
m136 N156 AI2 VSS VSS N12 L=0.13U W=2.02U
m137 N190 N156 VSS VSS N12 L=0.13U W=4.82U
m138 N189 N155 N190 VSS N12 L=0.13U W=4.82U
m139 AP01-AIND1 AP01-AIN21 N189 VSS N12 L=0.13U W=4.82U
m14 AP67-AIND1 N30 VDD VDD P12 L=0.13U W=6.61U
m140 AP01-AIND1 N156 VDD VDD P12 L=0.13U W=6.61U
m141 N188 N156 VSS VSS N12 L=0.13U W=4.82U
m142 AP01-AIND1 N155 VDD VDD P12 L=0.13U W=6.61U
m143 N187 N155 N188 VSS N12 L=0.13U W=4.82U
m144 AP01-AIND1 AP01-AIN21 VDD VDD P12 L=0.13U W=6.61U
m145 AP01-AIND1 AP01-AIN21 N187 VSS N12 L=0.13U W=4.82U
m146 AP01-APN0 N172 AP01-AIND0 VSS N12 L=0.13U W=4.82U
m147 AP01-APN0 AGTPB AP01-AIND0 VDD P12 L=0.13U W=6.62U
m148 N172 AGTPB VDD VDD P12 L=0.13U W=0.94U
m149 N172 AGTPB VSS VSS N12 L=0.13U W=0.73U
m15 N62 N30 VSS VSS N12 L=0.13U W=4.82U
m150 AP01-AIN20 AI0_ VDD VDD P12 L=0.13U W=3.36U
m151 AP01-AIN20 AI0_ VSS VSS N12 L=0.13U W=2.02U
m152 N194 N156 VSS VSS N12 L=0.13U W=4.82U
m153 N193 N155 N194 VSS N12 L=0.13U W=4.82U
m154 AP01-AIND0 AP01-AIN20 N193 VSS N12 L=0.13U W=4.82U
m155 AP01-AIND0 N156 VDD VDD P12 L=0.13U W=6.61U
m156 N192 N156 VSS VSS N12 L=0.13U W=4.82U
m157 AP01-AIND0 N155 VDD VDD P12 L=0.13U W=6.61U
m158 N191 N155 N192 VSS N12 L=0.13U W=4.82U
m159 AP01-AIND0 AP01-AIN20 VDD VDD P12 L=0.13U W=6.61U
m16 AP67-AIND1 N29 VDD VDD P12 L=0.13U W=6.61U
m160 AP01-AIND0 AP01-AIN20 N191 VSS N12 L=0.13U W=4.82U
m161 AP01-APN1 YP38_0 VDD VDD P12 L=0.2U W=0.15U
m162 AP01-APN1 YP38_0 VSS VSS N12 L=0.39U W=0.15U
m163 YP38_0 AP01-APN1 VDD VDD P12 L=0.13U W=23.32U
m164 YP38_0 AP01-APN1 VSS VSS N12 L=0.13U W=10.4U
m165 AP01-APN0 YP38_1 VDD VDD P12 L=0.2U W=0.15U
m166 AP01-APN0 YP38_1 VSS VSS N12 L=0.39U W=0.15U
m167 YP38_1 AP01-APN0 VDD VDD P12 L=0.13U W=23.32U
m168 YP38_1 AP01-APN0 VSS VSS N12 L=0.13U W=10.4U
m169 AI2 N195 VDD VDD P12 L=0.13U W=4U
m17 N61 N29 N62 VSS N12 L=0.13U W=4.82U
m170 AI2 N195 VSS VSS N12 L=0.13U W=2.46U
m171 AI2_ A2 VDD VDD P12 L=0.13U W=4U
m172 AI2_ A2 VSS VSS N12 L=0.13U W=2.46U
m173 N195 A2 VDD VDD P12 L=0.13U W=3.2U
m174 N195 A2 VSS VSS N12 L=0.13U W=1.98U
m176 AI1 N203 VDD VDD P12 L=0.13U W=4U
m177 AI1 N203 VSS VSS N12 L=0.13U W=2.46U
m178 AI1_ A1 VDD VDD P12 L=0.13U W=4U
m179 AI1_ A1 VSS VSS N12 L=0.13U W=2.46U
m18 AP67-AIND1 AP67-AIN21 VDD VDD P12 L=0.13U W=6.61U
m180 N203 A1 VDD VDD P12 L=0.13U W=3.2U
m181 N203 A1 VSS VSS N12 L=0.13U W=1.98U
m183 AI0 N211 VDD VDD P12 L=0.13U W=4U
m184 AI0 N211 VSS VSS N12 L=0.13U W=2.46U
m185 AI0_ A0 VDD VDD P12 L=0.13U W=4U
m186 AI0_ A0 VSS VSS N12 L=0.13U W=2.46U
m187 N211 A0 VDD VDD P12 L=0.13U W=3.2U
m188 N211 A0 VSS VSS N12 L=0.13U W=1.98U
m19 AP67-AIND1 AP67-AIN21 N61 VSS N12 L=0.13U W=4.82U
m2 AP67-APN1 AGTPT AP67-AIND1 VDD P12 L=0.13U W=6.62U
m20 AP67-APN0 N46 AP67-AIND0 VSS N12 L=0.13U W=4.82U
m21 AP67-APN0 AGTPB AP67-AIND0 VDD P12 L=0.13U W=6.62U
m22 N46 AGTPB VDD VDD P12 L=0.13U W=0.94U
m23 N46 AGTPB VSS VSS N12 L=0.13U W=0.73U
m24 AP67-AIN20 AI0_ VDD VDD P12 L=0.13U W=3.36U
m25 AP67-AIN20 AI0_ VSS VSS N12 L=0.13U W=2.02U
m26 N68 N30 VSS VSS N12 L=0.13U W=4.82U
m27 N67 N29 N68 VSS N12 L=0.13U W=4.82U
m28 AP67-AIND0 AP67-AIN20 N67 VSS N12 L=0.13U W=4.82U
m29 AP67-AIND0 N30 VDD VDD P12 L=0.13U W=6.61U
m3 N35 AGTPT VDD VDD P12 L=0.13U W=0.94U
m30 N66 N30 VSS VSS N12 L=0.13U W=4.82U
m31 AP67-AIND0 N29 VDD VDD P12 L=0.13U W=6.61U
m32 N65 N29 N66 VSS N12 L=0.13U W=4.82U
m33 AP67-AIND0 AP67-AIN20 VDD VDD P12 L=0.13U W=6.61U
m34 AP67-AIND0 AP67-AIN20 N65 VSS N12 L=0.13U W=4.82U
m35 AP67-APN1 YP38_6 VDD VDD P12 L=0.2U W=0.15U
m36 AP67-APN1 YP38_6 VSS VSS N12 L=0.39U W=0.15U
m37 YP38_6 AP67-APN1 VDD VDD P12 L=0.13U W=23.32U
m38 YP38_6 AP67-APN1 VSS VSS N12 L=0.13U W=10.4U
m39 AP67-APN0 YP38_7 VDD VDD P12 L=0.2U W=0.15U
m4 N35 AGTPT VSS VSS N12 L=0.13U W=0.73U
m40 AP67-APN0 YP38_7 VSS VSS N12 L=0.39U W=0.15U
m41 YP38_7 AP67-APN0 VDD VDD P12 L=0.13U W=23.32U
m42 YP38_7 AP67-APN0 VSS VSS N12 L=0.13U W=10.4U
m43 AP45-APN1 N77 AP45-AIND1 VSS N12 L=0.13U W=4.82U
m44 AP45-APN1 AGTPT AP45-AIND1 VDD P12 L=0.13U W=6.62U
m45 N77 AGTPT VDD VDD P12 L=0.13U W=0.94U
m46 N77 AGTPT VSS VSS N12 L=0.13U W=0.73U
m47 AP45-AIN21 AI0 VDD VDD P12 L=0.13U W=3.36U
m48 AP45-AIN21 AI0 VSS VSS N12 L=0.13U W=2.02U
m49 N71 AI1 VDD VDD P12 L=0.13U W=3.36U
m5 AP67-AIN21 AI0 VDD VDD P12 L=0.13U W=3.36U
m50 N71 AI1 VSS VSS N12 L=0.13U W=2.02U
m51 N72 AI2_ VDD VDD P12 L=0.13U W=3.36U
m52 N72 AI2_ VSS VSS N12 L=0.13U W=2.02U
m53 N106 N72 VSS VSS N12 L=0.13U W=4.82U
m54 N105 N71 N106 VSS N12 L=0.13U W=4.82U
m55 AP45-AIND1 AP45-AIN21 N105 VSS N12 L=0.13U W=4.82U
m56 AP45-AIND1 N72 VDD VDD P12 L=0.13U W=6.61U
m57 N104 N72 VSS VSS N12 L=0.13U W=4.82U
m58 AP45-AIND1 N71 VDD VDD P12 L=0.13U W=6.61U
m59 N103 N71 N104 VSS N12 L=0.13U W=4.82U
m6 AP67-AIN21 AI0 VSS VSS N12 L=0.13U W=2.02U
m60 AP45-AIND1 AP45-AIN21 VDD VDD P12 L=0.13U W=6.61U
m61 AP45-AIND1 AP45-AIN21 N103 VSS N12 L=0.13U W=4.82U
m62 AP45-APN0 N88 AP45-AIND0 VSS N12 L=0.13U W=4.82U
m63 AP45-APN0 AGTPB AP45-AIND0 VDD P12 L=0.13U W=6.62U
m64 N88 AGTPB VDD VDD P12 L=0.13U W=0.94U
m65 N88 AGTPB VSS VSS N12 L=0.13U W=0.73U
m66 AP45-AIN20 AI0_ VDD VDD P12 L=0.13U W=3.36U
m67 AP45-AIN20 AI0_ VSS VSS N12 L=0.13U W=2.02U
m68 N110 N72 VSS VSS N12 L=0.13U W=4.82U
m69 N109 N71 N110 VSS N12 L=0.13U W=4.82U
m7 N29 AI1_ VDD VDD P12 L=0.13U W=3.36U
m70 AP45-AIND0 AP45-AIN20 N109 VSS N12 L=0.13U W=4.82U
m71 AP45-AIND0 N72 VDD VDD P12 L=0.13U W=6.61U
m72 N108 N72 VSS VSS N12 L=0.13U W=4.82U
m73 AP45-AIND0 N71 VDD VDD P12 L=0.13U W=6.61U
m74 N107 N71 N108 VSS N12 L=0.13U W=4.82U
m75 AP45-AIND0 AP45-AIN20 VDD VDD P12 L=0.13U W=6.61U
m76 AP45-AIND0 AP45-AIN20 N107 VSS N12 L=0.13U W=4.82U
m77 AP45-APN1 YP38_4 VDD VDD P12 L=0.2U W=0.15U
m78 AP45-APN1 YP38_4 VSS VSS N12 L=0.39U W=0.15U
m79 YP38_4 AP45-APN1 VDD VDD P12 L=0.13U W=23.32U
m8 N29 AI1_ VSS VSS N12 L=0.13U W=2.02U
m80 YP38_4 AP45-APN1 VSS VSS N12 L=0.13U W=10.4U
m81 AP45-APN0 YP38_5 VDD VDD P12 L=0.2U W=0.15U
m82 AP45-APN0 YP38_5 VSS VSS N12 L=0.39U W=0.15U
m83 YP38_5 AP45-APN0 VDD VDD P12 L=0.13U W=23.32U
m84 YP38_5 AP45-APN0 VSS VSS N12 L=0.13U W=10.4U
m85 AP23-APN1 N119 AP23-AIND1 VSS N12 L=0.13U W=4.82U
m86 AP23-APN1 AGTPT AP23-AIND1 VDD P12 L=0.13U W=6.62U
m87 N119 AGTPT VDD VDD P12 L=0.13U W=0.94U
m88 N119 AGTPT VSS VSS N12 L=0.13U W=0.73U
m89 AP23-AIN21 AI0 VDD VDD P12 L=0.13U W=3.36U
m9 N30 AI2_ VDD VDD P12 L=0.13U W=3.36U
m90 AP23-AIN21 AI0 VSS VSS N12 L=0.13U W=2.02U
m91 N113 AI1_ VDD VDD P12 L=0.13U W=3.36U
m92 N113 AI1_ VSS VSS N12 L=0.13U W=2.02U
m93 N114 AI2 VDD VDD P12 L=0.13U W=3.36U
m94 N114 AI2 VSS VSS N12 L=0.13U W=2.02U
m95 N148 N114 VSS VSS N12 L=0.13U W=4.82U
m96 N147 N113 N148 VSS N12 L=0.13U W=4.82U
m97 AP23-AIND1 AP23-AIN21 N147 VSS N12 L=0.13U W=4.82U
m98 AP23-AIND1 N114 VDD VDD P12 L=0.13U W=6.61U
m99 N146 N114 VSS VSS N12 L=0.13U W=4.82U
.ENDS Bimod_Tag_ROMHYP38
****
.SUBCKT Bimod_Tag_ROMHYP38X A0 A1 A2 AGTPB AGTPT YP24_0 YP24_1 YP24_2 YP24_3
+  YP38_0 YP38_1 YP38_2 YP38_3 YP38_4 YP38_5 YP38_6 YP38_7 VDD VSS
** Bimod_Tag_ROMHYP38X: 189 flat devices **
XI0 A0 A1 A2 AGTPB AGTPT YP24_0 YP24_1 YP24_2 YP24_3 YP38_0 YP38_1 YP38_2
+  YP38_3 YP38_4 YP38_5 YP38_6 YP38_7 VDD VSS Bimod_Tag_ROMHYP38
.ENDS Bimod_Tag_ROMHYP38X
****
.SUBCKT Bimod_Tag_ROMYDECS A0_0 A0_1 A1 A2 AGTPB AGTPT YP24_0 YP24_1 YP38_0
+  YP38_1 YP38_2 YP38_3 YP38_4 YP38_5 YP38_6 YP38_7 VDD VSS
** Bimod_Tag_ROMYDECS: 238 flat devices **
XI0 A0_0 AGTPB AGTPT YP24_0 YP24_1 VDD VSS Bimod_Tag_ROMHYP12X
XI1 A0_1 A1 A2 AGTPB AGTPT YP24_0 YP24_1 VSS VSS YP38_0 YP38_1 YP38_2 YP38_3
+  YP38_4 YP38_5 YP38_6 YP38_7 VDD VSS Bimod_Tag_ROMHYP38X
.ENDS Bimod_Tag_ROMYDECS
****
.SUBCKT Bimod_Tag_ROMXYDECS A0_0 A0_1 A0_2 A1_0 A1_1 A2_0 A2_1 AGTPB AGTPT
+  XP_0 XP_1 XP_2 XP_3 XP_4 XP_5 XP_6 XP_7 YP24_0 YP24_1 YP38_0 YP38_1 YP38_2
+  YP38_3 YP38_4 YP38_5 YP38_6 YP38_7 VDD VSS
** Bimod_Tag_ROMXYDECS: 427 flat devices **
XI0 A0_0 A1_0 A2_0 AGTPB AGTPT XP_0 XP_1 XP_2 XP_3 XP_4 XP_5 XP_6 XP_7 VDD VSS
+  Bimod_Tag_ROMXDECS
XI1 A0_1 A0_2 A1_1 A2_1 AGTPB AGTPT YP24_0 YP24_1 YP38_0 YP38_1 YP38_2 YP38_3
+  YP38_4 YP38_5 YP38_6 YP38_7 VDD VSS Bimod_Tag_ROMYDECS
.ENDS Bimod_Tag_ROMXYDECS
****
.SUBCKT Bimod_Tag_ROMHBF16 CEN CLK GSRCN GTP GTPN MBL RST STOV VDD VSS
** Bimod_Tag_ROMHBF16: 76 flat devices **
d74 VSS CEN NDIO12 0.2116P 1.84U
d75 VSS STOV NDIO12 0.2116P 1.84U
d76 VSS CLK NDIO12 0.2116P 1.84U
m1 BF-CEL BF-CENMML VDD VDD P12 L=0.13U W=3.02U
m10 BF-CKSTOV CLK N77 VSS N12 L=0.13U W=2.64U
m11 GTPN BF-GTPI N33 VSS N12 L=0.13U W=0.15U
m12 N18 N18 VDD VDD P12 L=0.13U W=0.15U
m13 GTPN BF-GTPI VDD VDD P12 L=0.13U W=0.3U
m14 N18 VDD VDD VDD P12 L=0.13U W=0.15U
m15 BF-GTPI GTPN VDD VDD P12 L=0.13U W=0.3U
m16 BF-GTPI GTPN VSS VSS N12 L=0.13U W=0.15U
m17 N33 N18 VSS VSS N12 L=0.13U W=0.15U
m18 N79 BF-CLKN VSS VSS N12 L=0.13U W=5.33U
m19 GSRCN BF-CEL N79 VSS N12 L=0.13U W=5.33U
m2 BF-CEL BF-CENMML VSS VSS N12 L=0.13U W=1.96U
m20 GSRCN BF-CLKN VDD VDD P12 L=0.13U W=7.32U
m21 N78 BF-CLKN VSS VSS N12 L=0.13U W=5.33U
m22 GSRCN BF-CEL VDD VDD P12 L=0.13U W=7.32U
m23 GSRCN BF-CEL N78 VSS N12 L=0.13U W=5.33U
m24 N42 BF-CLKN VSS VSS N12 L=0.13U W=1.07U
m25 N44 CLK VDD VDD P12 L=0.13U W=1.46U
m26 BF-CENMML N46 N44 VDD P12 L=0.13U W=1.46U
m27 BF-CENMML N46 N42 VSS N12 L=0.13U W=1.07U
m28 RST BF-MBLN VDD VDD P12 L=0.13U W=2.26U
m29 RST BF-RSTSRC VDD VDD P12 L=0.13U W=26.25U
m3 BF-CLKN CLK VDD VDD P12 L=0.13U W=3.52U
m30 N46 CEN VDD VDD P12 L=0.13U W=0.66U
m31 N46 CEN VSS VSS N12 L=0.13U W=0.4U
m32 RST BF-MBLN N87 VSS N12 L=0.13U W=4.98U
m33 N87 BF-RSTSRC VSS VSS N12 L=0.13U W=6.47U
m34 RST BF-MBLN N86 VSS N12 L=0.13U W=4.98U
m35 N86 BF-RSTSRC VSS VSS N12 L=0.13U W=6.47U
m36 RST BF-MBLN N85 VSS N12 L=0.13U W=4.98U
m37 N85 BF-RSTSRC VSS VSS N12 L=0.13U W=6.47U
m38 RST BF-MBLN N84 VSS N12 L=0.13U W=4.98U
m39 N84 BF-RSTSRC VSS VSS N12 L=0.13U W=6.47U
m4 BF-CLKN CLK VSS VSS N12 L=0.13U W=1.06U
m40 RST BF-MBLN N83 VSS N12 L=0.13U W=4.98U
m41 N83 BF-RSTSRC VSS VSS N12 L=0.13U W=6.47U
m42 RST BF-MBLN N82 VSS N12 L=0.13U W=4.98U
m43 N82 BF-RSTSRC VSS VSS N12 L=0.13U W=6.47U
m44 RST BF-MBLN N81 VSS N12 L=0.13U W=4.98U
m45 N81 BF-RSTSRC VSS VSS N12 L=0.13U W=6.47U
m46 RST BF-MBLN N80 VSS N12 L=0.13U W=4.98U
m47 N80 BF-RSTSRC VSS VSS N12 L=0.13U W=6.47U
m48 BF-CENMML CLK N51 VSS N12 L=0.26U W=0.3U
m49 N52 BF-CEL VDD VDD P12 L=0.26U W=0.3U
m5 BF-RSTSRC BF-RSRCN VDD VDD P12 L=0.13U W=15.3U
m50 N51 BF-CEL VSS VSS N12 L=0.26U W=0.3U
m51 BF-CENMML BF-CLKN N52 VDD P12 L=0.26U W=0.3U
m52 BF-RSRCN BF-CKSTOV N55 VSS N12 L=0.13U W=6.22U
m53 BF-RSRCN GTP VDD VDD P12 L=0.13U W=2.67U
m54 N55 GTP VSS VSS N12 L=0.13U W=6.22U
m55 BF-RSRCN GTP VDD VDD P12 L=0.13U W=2.67U
m56 BF-RSRCN BF-CKSTOV VDD VDD P12 L=0.13U W=2.67U
m57 BF-RSRCN BF-CKSTOV VDD VDD P12 L=0.13U W=2.67U
m58 N24 STOV VDD VDD P12 L=0.13U W=1.08U
m59 N24 STOV VSS VSS N12 L=0.13U W=0.88U
m6 BF-RSTSRC BF-RSRCN VSS VSS N12 L=0.13U W=8.92U
m60 N63 BF-RSTSRC VDD VDD P12 L=0.13U W=1.56U
m61 RST N24 N63 VDD P12 L=0.13U W=1.56U
m62 N65 BF-RSTSRC VSS VSS N12 L=0.13U W=1.28U
m63 RST STOV N65 VSS N12 L=0.13U W=1.28U
m64 N67 MBL VDD VDD P12 L=0.13U W=3.28U
m65 BF-MBLN STOV N67 VDD P12 L=0.13U W=3.28U
m66 BF-MBLN N24 N69 VSS N12 L=0.13U W=3U
m67 N69 MBL VSS VSS N12 L=0.13U W=3U
m68 N71 BF-RSTSRC VDD VDD P12 L=0.13U W=1.56U
m69 RST N24 N71 VDD P12 L=0.13U W=1.56U
m7 BF-CKSTOV STOV VDD VDD P12 L=0.13U W=2.27U
m70 RST STOV N73 VSS N12 L=0.13U W=1.28U
m71 N73 BF-RSTSRC VSS VSS N12 L=0.13U W=1.28U
m72 N75 MBL VDD VDD P12 L=0.13U W=3.28U
m73 BF-MBLN STOV N75 VDD P12 L=0.13U W=3.28U
m8 N77 STOV VSS VSS N12 L=0.13U W=2.64U
m9 BF-CKSTOV CLK VDD VDD P12 L=0.13U W=2.27U
.ENDS Bimod_Tag_ROMHBF16
****
.SUBCKT Bimod_Tag_ROMHBFX CEN CLK GSRCN GTP GTPN MBL RST VDD VSS
** Bimod_Tag_ROMHBFX: 76 flat devices **
XI0 CEN CLK GSRCN GTP GTPN MBL RST VSS VDD VSS Bimod_Tag_ROMHBF16
.ENDS Bimod_Tag_ROMHBFX
****
.SUBCKT Bimod_Tag_ROMWD G0_0 G0_1 G0_2 G0_3 GTP WL0 WL1 WL2 WL3 XP0_0 XP0_1
+  XP0_2 XP0_3 XP0_4 XP0_5 XP0_6 XP0_7 XP1 XP2 XPX VDD VSS
** Bimod_Tag_ROMWD: 54 flat devices **
m1 N24 RSWN0 GTP VDD P12 L=0.13U W=1.54U
m10 WL1 WL1_EN_ VDD VDD P12 L=0.13U W=25.02U
m11 WL1 WL1_EN_ VSS VSS N12 L=0.13U W=11.12U
m12 N28 RSWN1 VSS VSS N12 L=0.13U W=0.3U
m13 WL1_EN_ N28 VDD VDD P12 L=0.13U W=8.86U
m14 WL1_EN_ N28 VSS VSS N12 L=0.13U W=5.16U
m15 WL2 WL2_EN_ VDD VDD P12 L=0.13U W=25.02U
m16 WL2 WL2_EN_ VSS VSS N12 L=0.13U W=11.12U
m17 WL2_EN_ N35 VDD VDD P12 L=0.13U W=8.86U
m18 WL2_EN_ N35 VSS VSS N12 L=0.13U W=5.16U
m19 WL3 WL3_EN_ VDD VDD P12 L=0.13U W=25.02U
m2 N24 N25 GTP VSS N12 L=0.13U W=1.4U
m20 WL3 WL3_EN_ VSS VSS N12 L=0.13U W=11.12U
m21 WL3_EN_ N38 VDD VDD P12 L=0.13U W=8.86U
m22 WL3_EN_ N38 VSS VSS N12 L=0.13U W=5.16U
m23 N58 XP1 VSS VSS N12 L=0.13U W=0.87U
m24 N32 XP2 N58 VSS N12 L=0.13U W=0.87U
m25 RSWN3 G0_3 VDD VDD P12 L=0.13U W=0.72U
m26 RSWN3 G0_3 N32 VSS N12 L=0.13U W=0.72U
m27 RSWN3 XP2 VDD VDD P12 L=0.13U W=0.72U
m28 RSWN3 XP1 VDD VDD P12 L=0.13U W=0.72U
m29 RSWN2 XP1 VDD VDD P12 L=0.13U W=0.72U
m3 WL0 WL0_EN_ VDD VDD P12 L=0.13U W=25.02U
m30 RSWN2 XP2 VDD VDD P12 L=0.13U W=0.72U
m31 RSWN2 G0_2 VDD VDD P12 L=0.13U W=0.72U
m32 RSWN2 G0_2 N32 VSS N12 L=0.13U W=0.72U
m33 RSWN0 G0_0 VDD VDD P12 L=0.13U W=0.72U
m34 RSWN0 G0_0 N32 VSS N12 L=0.13U W=0.72U
m35 RSWN0 XP1 VDD VDD P12 L=0.13U W=0.72U
m36 RSWN0 XP2 VDD VDD P12 L=0.13U W=0.72U
m37 RSWN1 XP2 VDD VDD P12 L=0.13U W=0.72U
m38 RSWN1 XP1 VDD VDD P12 L=0.13U W=0.72U
m39 RSWN1 G0_1 VDD VDD P12 L=0.13U W=0.72U
m4 WL0 WL0_EN_ VSS VSS N12 L=0.13U W=11.12U
m40 RSWN1 G0_1 N32 VSS N12 L=0.13U W=0.72U
m41 N25 RSWN0 VDD VDD P12 L=0.13U W=0.35U
m42 N25 RSWN0 VSS VSS N12 L=0.13U W=0.2U
m43 N29 RSWN1 VDD VDD P12 L=0.13U W=0.35U
m44 N29 RSWN1 VSS VSS N12 L=0.13U W=0.2U
m45 N35 RSWN2 GTP VDD P12 L=0.13U W=1.54U
m46 N35 N36 GTP VSS N12 L=0.13U W=1.4U
m47 N35 RSWN2 VSS VSS N12 L=0.13U W=0.3U
m48 N38 RSWN3 GTP VDD P12 L=0.13U W=1.54U
m49 N38 N39 GTP VSS N12 L=0.13U W=1.4U
m5 N24 RSWN0 VSS VSS N12 L=0.13U W=0.3U
m50 N38 RSWN3 VSS VSS N12 L=0.13U W=0.3U
m51 N36 RSWN2 VDD VDD P12 L=0.13U W=0.35U
m52 N36 RSWN2 VSS VSS N12 L=0.13U W=0.2U
m53 N39 RSWN3 VDD VDD P12 L=0.13U W=0.35U
m54 N39 RSWN3 VSS VSS N12 L=0.13U W=0.2U
m6 WL0_EN_ N24 VDD VDD P12 L=0.13U W=8.86U
m7 WL0_EN_ N24 VSS VSS N12 L=0.13U W=5.16U
m8 N28 RSWN1 GTP VDD P12 L=0.13U W=1.54U
m9 N28 N29 GTP VSS N12 L=0.13U W=1.4U
.ENDS Bimod_Tag_ROMWD
****
.SUBCKT Bimod_Tag_ROMWDXR0 GTP WL0 WL1 WL2 WL3 XP0_0 XP0_1 XP0_2 XP0_3 XP0_4
+  XP0_5 XP0_6 XP0_7 XP1 XP2 VDD VSS
** Bimod_Tag_ROMWDXR0: 54 flat devices **
XI0 XP0_0 XP0_1 XP0_2 XP0_3 GTP WL0 WL1 WL2 WL3 XP0_0 XP0_1 XP0_2 XP0_3 XP0_4
+  XP0_5 XP0_6 XP0_7 XP1 XP2 XP1 VDD VSS Bimod_Tag_ROMWD
.ENDS Bimod_Tag_ROMWDXR0
****
.SUBCKT Bimod_Tag_ROMWDXMX GTP WL0 WL1 WL2 WL3 XP0_0 XP0_1 XP0_2 XP0_3 XP0_4
+  XP0_5 XP0_6 XP0_7 XP1 XP2 VDD VSS